tests/unit/ps/ieee9bus_v34_shunts.raw
@!IC, SBASE,REV,XFRRAT,NXFRAT,BASFRQ
0,    100.00, 34, 0, 1, 60.00       / December 18, 2025 12:22:08; Simulator Version 23; BuildDate 2025_5_2
IEEE 9 BUS CASE - 3G - 3L

GENERAL, THRSHZ=0.0002, PQBRAK=0.7, BLOWUP=5.0
GAUSS, ITMX=100, ACCP=1.6, ACCQ=1.6, ACCM=1.0, TOL=0.0001
NEWTON, ITMXN=50, ACCN=1.0, TOLN=0.1, VCTOLQ=0.1, VCTOLV=0.00001, DVLIM=0.99, NDVFCT=0.99
ADJUST, ADJTHR=0.005, ACCTAP=1.0, TAPLIM=0.05, SWVBND=100.0, MXTPSS=99, MXSWIM=10
TYSL, ITMXTY=20, ACCTY=1.0, TOLTY=0.00001
SOLVER, FNSL, ACTAPS=1, AREAIN=2, PHSHFT=1, DCTAPS=1, SWSHNT=1, FLATST=0, VARLIM=0, NONDIV=0
RATING, 1, "      ", "                                "
RATING, 2, "      ", "                                "
RATING, 3, "      ", "                                "
RATING, 4, "      ", "                                "
RATING, 5, "      ", "                                "
RATING, 6, "      ", "                                "
RATING, 7, "      ", "                                "
RATING, 8, "      ", "                                "
RATING, 9, "      ", "                                "
RATING,10, "      ", "                                "
RATING,11, "      ", "                                "
RATING,12, "      ", "                                "
0 / END OF SYSTEM-WIDE DATA, BEGIN BUS DATA
@!   I,'NAME        ', BASKV, IDE,AREA,ZONE,OWNER, VM,        VA,    NVHI,   NVLO,   EVHI,   EVLO
    1,'BUS1        ',  16.5000,3,   1,   1,   1,1.03999996,   0.000000, 1.10000, 0.90000, 1.10000, 0.90000
    2,'BUS2        ',  18.0000,2,   2,   2,   1,1.02499998,   9.280000, 1.10000, 0.90000, 1.10000, 0.90000
    3,'BUS3        ',  13.8000,2,   2,   3,   1,1.02499998,   4.664800, 1.10000, 0.90000, 1.10000, 0.90000
    4,'BUS4        ', 230.0000,1,   1,   1,   1,1.02578998,  -2.216800, 1.10000, 0.90000, 1.10000, 0.90000
    5,'BUS5        ', 230.0000,1,   1,   4,   2,0.99563003,  -3.988800, 1.10000, 0.90000, 1.10000, 0.90000
    6,'BUS6        ', 230.0000,1,   1,   5,   2,1.01265001,  -3.687400, 1.10000, 0.90000, 1.10000, 0.90000
    7,'BUS7        ', 230.0000,1,   2,   2,   1,1.02576995,   3.719700, 1.10000, 0.90000, 1.10000, 0.90000
    8,'BUS8        ', 230.0000,1,   2,   6,   2,1.01587999,   0.727500, 1.10000, 0.90000, 1.10000, 0.90000
    9,'BUS9        ', 230.0000,1,   2,   3,   1,1.03234994,   1.966700, 1.10000, 0.90000, 1.10000, 0.90000
0 / END OF BUS DATA, BEGIN LOAD DATA
@!   I,'ID',STAT,AREA,ZONE,      PL,        QL,        IP,        IQ,        YP,        YQ, OWNER,SCALE,INTRPT,  DGENP,     DGENQ, DGENM
    5,'1 ',1,   1,   1,   125.000,    50.000,     0.000,     0.000,     0.000,     0.000,   1,1, 0,     0.000,     0.000, 1
    6,'1 ',1,   1,   1,    90.000,    30.000,     0.000,     0.000,     0.000,     0.000,   1,1, 0,     0.000,     0.000, 1
    8,'1 ',1,   1,   1,   100.000,    35.000,     0.000,     0.000,     0.000,     0.000,   1,1, 0,     0.000,     0.000, 1
0 / END OF LOAD DATA, BEGIN FIXED SHUNT DATA
@!   I,'ID',STATUS,  GL,        BL
     6,'1 ', 1,     0.000,     0.000
0 / END OF FIXED SHUNT DATA, BEGIN GENERATOR DATA
@!   I,'ID',      PG,        QG,        QT,        QB,     VS,    IREG,     MBASE,     ZR,         ZX,         RT,         XT,     GTAP,STAT, RMPCT,      PT,        PB,    O1,  F1,    O2,  F2,    O3,  F3,    O4,  F4,WMOD,  WPF
    1,'1 ',    71.641,    27.046,   300.000,  -300.000,1.04000,    0,   260.000,   0.00010,   0.10000,   0.00000,   0.00000,1.00000,1,  100.0,   250.000,    10.000,   1,1.0000,   0,1.0000,   0,1.0000,   0,1.0000,0, 1.0000
    2,'1 ',   163.000,     6.654,   300.000,  -300.000,1.02500,    0,   310.000,   0.00010,   0.21000,   0.00000,   0.00000,1.00000,1,  100.0,   300.000,    10.000,   1,1.0000,   0,1.0000,   0,1.0000,   0,1.0000,0, 1.0000
    3,'1 ',    85.000,   -10.860,   300.000,  -300.000,1.02500,    0,   280.000,   0.00010,   0.21000,   0.00000,   0.00000,1.00000,1,  100.0,   270.000,    10.000,   1,1.0000,   0,1.0000,   0,1.0000,   0,1.0000,0, 1.0000
0 / END OF GENERATOR DATA, BEGIN BRANCH DATA
@!   I,     J,'CKT',     R,          X,         B,                    'N A M E'                 ,   RATE1,   RATE2,   RATE3,   RATE4,   RATE5,   RATE6,   RATE7,   RATE8,   RATE9,  RATE10,  RATE11,  RATE12,    GI,       BI,       GJ,       BJ,STAT,MET,  LEN,  O1,  F1,    O2,  F2,    O3,  F3,    O4,  F4
     4,     5,'1 ',1.00000E-2,8.50000E-2,1.76000E-1,'                                        ',  250.00,  250.00,  250.00,    0.00,    0.00,    0.00,    0.00,    0.00,    0.00,    0.00,    0.00,    0.00,  0.00000,  0.00000,  0.00000,  0.00000, 1,1,   0.00,   1,1.0000,   0,1.0000,   0,1.0000,   0,1.0000
     4,     6,'1 ',1.70000E-2,9.20000E-2,1.58000E-1,'                                        ',  250.00,  250.00,  250.00,    0.00,    0.00,    0.00,    0.00,    0.00,    0.00,    0.00,    0.00,    0.00,  0.00000,  0.00000,  0.00000,  0.00000, 1,1,   0.00,   1,1.0000,   0,1.0000,   0,1.0000,   0,1.0000
     5,     7,'1 ',3.20000E-2,1.61000E-1,3.06000E-1,'                                        ',  250.00,  250.00,  250.00,    0.00,    0.00,    0.00,    0.00,    0.00,    0.00,    0.00,    0.00,    0.00,  0.00000,  0.00000,  0.00000,  0.00000, 1,1,   0.00,   1,1.0000,   0,1.0000,   0,1.0000,   0,1.0000
     6,     9,'1 ',3.90000E-2,1.70000E-1,3.58000E-1,'                                        ',  150.00,  150.00,  150.00,    0.00,    0.00,    0.00,    0.00,    0.00,    0.00,    0.00,    0.00,    0.00,  0.00000,  0.00000,  0.00000,  0.00000, 1,2,   0.00,   1,1.0000,   0,1.0000,   0,1.0000,   0,1.0000
     7,     8,'1 ',8.50000E-3,7.20000E-2,1.49000E-1,'                                        ',  250.00,  250.00,  250.00,    0.00,    0.00,    0.00,    0.00,    0.00,    0.00,    0.00,    0.00,    0.00,  0.00000,  0.00000,  0.00000,  0.00000, 1,1,   0.00,   1,1.0000,   0,1.0000,   0,1.0000,   0,1.0000
     8,     9,'1 ',1.19000E-2,1.00800E-1,2.09000E-1,'                                        ',  150.00,  150.00,  150.00,    0.00,    0.00,    0.00,    0.00,    0.00,    0.00,    0.00,    0.00,    0.00,  0.00000,  0.00000,  0.00000,  0.00000, 1,1,   0.00,   1,1.0000,   0,1.0000,   0,1.0000,   0,1.0000
0 / END OF BRANCH DATA, BEGIN SYSTEM SWITCHING DEVICE DATA
@!   I,     J,'CKT',          X,   RATE1,   RATE2,   RATE3,   RATE4,   RATE5,   RATE6,   RATE7,   RATE8,   RATE9,  RATE10,  RATE11,  RATE12, STAT,NSTAT,  MET,STYPE,'NAME'
0 / END OF SYSTEM SWITCHING DEVICE DATA, BEGIN TRANSFORMER DATA
@!   I,     J,     K,'CKT',CW,CZ,CM,    MAG1,       MAG2,NMETR,               'N A M E',               STAT,O1,  F1,    O2,  F2,    O3,  F3,    O4,  F4,     'VECGRP', ZCOD
@!   R1-2,       X1-2,   SBASE1-2,     R2-3,       X2-3,   SBASE2-3,     R3-1,       X3-1,   SBASE3-1, VMSTAR,   ANSTAR
@!WINDV1,  NOMV1,    ANG1,  RATE1-1,  RATE1-2,  RATE1-3,  RATE1-4,  RATE1-5,  RATE1-6,  RATE1-7,  RATE1-8,  RATE1-9, RATE1-10, RATE1-11, RATE1-12,COD1,CONT1,   RMA1,    RMI1,    VMA1,    VMI1, NTP1,TAB1,  CR1,     CX1,   CNXA1
@!WINDV2,  NOMV2,    ANG2,  RATE2-1,  RATE2-2,  RATE2-3,  RATE2-4,  RATE2-5,  RATE2-6,  RATE2-7,  RATE2-8,  RATE2-9, RATE2-10, RATE2-11, RATE2-12,COD2,CONT2,   RMA2,    RMI2,    VMA2,    VMI2, NTP2,TAB2,  CR2,     CX2,   CNXA2
@!WINDV3,  NOMV3,    ANG3,  RATE3-1,  RATE3-2,  RATE3-3,  RATE3-4,  RATE3-5,  RATE3-6,  RATE3-7,  RATE3-8,  RATE3-9, RATE3-10, RATE3-11, RATE3-12,COD3,CONT3,   RMA3,    RMI3,    VMA3,    VMI3, NTP3,TAB3,  CR3,     CX3,   CNXA3
     1,     4,    0,'T1',1,1,1,0.00000E-1,0.00000E-1,2,'            ', 1,   1,1.0000,   0,1.0000,   0,1.0000,   0,1.0000,'            '
1.00000E-7,5.76000E-2, 100.00
1.000000, 16.500,   0.000,   0.00,   0.00,   0.00,   0.00,   0.00,   0.00,   0.00,   0.00,   0.00,   0.00,   0.00,   0.00, 0,     0,1.100000,0.900000,1.100000,0.900000, 33, 0, 0.00000, 0.00000,  0.000,   0
1.000000,230.000
     2,     7,    0,'T2',1,1,1,0.00000E-1,0.00000E-1,2,'            ', 1,   1,1.0000,   0,1.0000,   0,1.0000,   0,1.0000,'            '
1.00000E-7,6.25000E-2, 100.00
1.000000, 18.000,   0.000,   0.00,   0.00,   0.00,   0.00,   0.00,   0.00,   0.00,   0.00,   0.00,   0.00,   0.00,   0.00, 0,     0,1.100000,0.900000,1.100000,0.900000, 33, 0, 0.00000, 0.00000,  0.000,   0
1.000000,230.000
     9,     3,    0,'T3',1,1,1,0.00000E-1,0.00000E-1,2,'            ', 1,   1,1.0000,   0,1.0000,   0,1.0000,   0,1.0000,'            '
1.00000E-7,5.86000E-2, 100.00
1.000000,230.000,   0.000,   0.00,   0.00,   0.00,   0.00,   0.00,   0.00,   0.00,   0.00,   0.00,   0.00,   0.00,   0.00, 0,     0,1.100000,0.900000,1.100000,0.900000, 33, 0, 0.00000, 0.00000,  0.000,   0
1.000000, 13.800
0 / END OF TRANSFORMER DATA, BEGIN AREA DATA
@! I,   ISW,     PDES,      PTOL,    'ARNAME'
   1,    1,    50.000,    10.000,'AREA1       '
   2,    2,    50.000,    10.000,'AREA2       '
0 / END OF AREA DATA, BEGIN TWO-TERMINAL DC DATA
@!  'NAME',   MDC,     RDC,      SETVL,     VSCHD,     VCMOD,     RCOMP,    DELTI,METER    DCVMIN,CCCITMX, CCCACC
@! IPR,NBR,ANMXR,ANMNR,   RCR,    XCR,  EBASR,  TRR,    TAPR,   TMXR,   TMNR,   STPR,    ICR,   IFR,   ITR,'IDR', XCAPR
@! IPI,NBI,ANMXI,ANMNI,   RCI,    XCI,  EBASI,  TRI,    TAPI,   TMXI,   TMNI,   STPI,    ICI,   IFI,   ITI,'IDI', XCAPI
0 / END OF TWO-TERMINAL DC DATA, BEGIN VSC DC LINE DATA
@!  'NAME',   MDC,     RDC,   O1,  F1,    O2,  F2,    O3,  F3,    O4,  F4
@!IBUS,TYPE,MODE,     DCSET,   ACSET,     ALOSS,     BLOSS,   MINLOSS,     SMAX,      IMAX,   PWF,        MAXQ,      MINQ, REMOT,  RMPCT
0 / END OF VSC DC LINE DATA, BEGIN IMPEDANCE CORRECTION DATA
@!I,   T1,    Re(F1),  Im(F1),    T2,    Re(F2),  Im(F2),    T3,    Re(F3),  Im(F3),    T4,    Re(F4),  Im(F4),    T5,    Re(F5),  Im(F5),    T6,    Re(F6),  Im(F6)
@!     T7,    Re(F7),  Im(F7),    T8,    Re(F8),  Im(F8),    T9,    Re(F9),  Im(F9),    T10,  Re(F10), Im(F10),    T11,  Re(F11), Im(F11),    T12,  Re(F12), Im(F12)
@!      ...
0 / END OF IMPEDANCE CORRECTION DATA, BEGIN MULTI-TERMINAL DC DATA
@!  'NAME',    NCONV,NDCBS,NDCLN,  MDC, VCONV,     VCMOD, VCONVN
@!  IB, N,ANGMX,ANGMN,    RC,      XC,    EBAS,   TR,    TAP,    TPMX,   TPMN,   TSTP,     SETVL,   DCPF,    MARG,CNVCOD
@!IDC, IB,AREA,ZONE,   'DCNAME',  IDC2,   RGRND,OWNER
@!IDC,JDC,'DCCKT',MET,   RDC,        LDC
0 / END OF MULTI-TERMINAL DC DATA, BEGIN MULTI-SECTION LINE DATA
@!   I,     J,'ID',MET,DUM1,  DUM2,  DUM3,  DUM4,  DUM5,  DUM6,  DUM7,  DUM8,  DUM9
0 / END OF MULTI-SECTION LINE DATA, BEGIN ZONE DATA
@! I,   'ZONAME'
   1,'ZONE1       '
   2,'ZONE2       '
   3,'ZONE3       '
   4,'ZONE4       '
   5,'ZONE5       '
   6,'ZONE6       '
0 / END OF ZONE DATA, BEGIN INTER-AREA TRANSFER DATA
@!ARFROM,ARTO,'TRID', PTRAN
0 / END OF INTER-AREA TRANSFER DATA, BEGIN OWNER DATA
@! I,   'OWNAME'
    1,'OWNER1      '
    2,'OWNER2      '
0 / END OF OWNER DATA, BEGIN FACTS DEVICE DATA
@!  'NAME',         I,     J,MODE,   PDES,      QDES,  VSET,      SHMX,      TRMX,   VTMN,   VTMX,   VSMX,      IMX,     LINX,   RMPCT,OWNER,    SET1,      SET2,VSREF, REMOT,   'MNAME'
0 / END OF FACTS DEVICE DATA, BEGIN SWITCHED SHUNT DATA
@!  I,MODSW,ADJM,ST, VSWHI,  VSWLO, SWREM,  RMPCT,   'RMIDNT',      BINIT,N1,     B1, N2,     B2, N3,     B3, N4,     B4, N5,     B5, N6,     B6, N7,     B7, N8,     B8
    1,0,0,1,1.00000,0.99000,    0,100.0,'        ',    5.00, 1,   5.00
    2,1,0,1,1.10000,0.90000,    0,100.0,'        ',    1.00, 1,   5.00
    3,4,0,1,1.10000,0.90000,    0,100.0,'        ',    0.00, 1,   0.00
    5,2,0,1,1.00000,1.00000,    0,100.0,'        ',    1.00, 1,   5.00
0 / END OF SWITCHED SHUNT DATA
@!  'NAME',        'MODEL',     NTERM,BUS1...BUSNTERM,NREAL,NINTG,NCHAR
@!ST,OWNER,NMETR
@! REAL1...REAL(MIN(10,NREAL))
@! INTG1...INTG(MIN(10,NINTG))
@! CHAR1...CHAR(MIN(10,NCHAR))
0 / END OF GEN DEVICE DATA, BEGIN INDUCTION MACHINE DATA
@!   I,'ID',ST,SC,DC,AREA,ZONE,OWNER,TC,BC,  MBASE, RATEKV,PC,  PSET,      H,       A,       B,       D,       E,     RA,        XA,        XM,        R1,        X1,        R2,        X2,        X3,       E1,    SE1,   E2,    SE2,   IA1,   IA2, XAMULT
0 / END OF INDUCTION MACHINE DATA
Q
